       4
 i =        1, E =       -52.1440238546
  O         3.8840155530        5.4613409391        4.9743693149
  H         4.8530193713        5.5094745998        5.0334165241
  H         3.6349586714        5.9250787629        5.7913306531
 Ne         3.5625549411        3.2232442538        6.4609445986
       4
 i =        2, E =       -52.1427885822
  O         3.8920165749        5.4693005312        4.9866634162
  H         4.8606099762        5.5054262700        5.0246284297
  H         3.6225883285        5.9286382296        5.7972479055
 Ne         3.6131665830        3.1302195206        6.3661938107
       4
 i =        3, E =       -52.1434737170
  O         3.8867691542        5.4526491155        5.0012636344
  H         4.8557506755        5.5104317557        5.0287556777
  H         3.6266012395        5.9339918943        5.8028230319
 Ne         3.7679052925        2.8852631528        6.1161938107
       4
 i =        4, E =       -52.1429736956
  O         3.8882117232        5.4687631245        4.9941801681
  H         4.8576377964        5.5085019167        5.0259457656
  H         3.6226722240        5.9344354585        5.8026937988
 Ne         3.6111892560        2.9821454727        6.1838898303
       4
 i =        5, E =       -52.1414863061
  O         3.8935126230        5.4817791572        4.9966918563
  H         4.8632035492        5.5050402162        5.0182647095
  H         3.6122265526        5.9382195351        5.8047522584
 Ne         3.4345466266        3.2321454727        6.0644200093
       4
 i =        6, E =       -52.1448049390
  O         3.8923339634        5.4801465456        4.9931742446
  H         4.8613359346        5.5084295056        5.0214921587
  H         3.6180091300        5.9383393889        5.8027360559
 Ne         3.5578630585        3.0947155484        6.0919156466
       4
 i =        7, E =       -52.1444268721
  O         3.8905594985        5.4844728254        4.9864987619
  H         4.8592494367        5.5130438333        5.0235980662
  H         3.6231159850        5.9404198505        5.8000791548
 Ne         3.6505489724        3.0079240975        6.0166496923
       4
 i =        8, E =       -52.1446832022
  O         3.8975998708        5.4819034482        4.9971293024
  H         4.8662056819        5.5134688779        5.0144562681
  H         3.6143590308        5.9457881405        5.7999699577
 Ne         3.8707064126        2.9421219832        5.9713639266
       4
 i =        9, E =       -52.1457264888
  O         3.8932502390        5.4663224780        5.0010824758
  H         4.8625558159        5.5143160841        5.0169605308
  H         3.6171558896        5.9450190509        5.7989178249
 Ne         3.7766400785        2.9228158059        5.9799018809
       4
 i =       10, E =       -52.1419201599
  O         3.8846917118        5.4479676383        5.0022715841
  H         4.8550452350        5.5147379269        5.0223969900
  H         3.6226177201        5.9423495481        5.7974073800
 Ne         3.5266400785        2.9508619129        6.0095396131
       4
 i =       11, E =       -52.1435730743
  O         3.8888284844        5.4868958934        4.9900321740
  H         4.8578808634        5.5148704726        5.0175099854
  H         3.6173411311        5.9468604888        5.7987072289
 Ne         3.6016076040        2.8901134612        5.9521328265
       4
 i =       12, E =       -52.1459789460
  O         3.8905688565        5.4821780342        4.9934158364
  H         4.8593366230        5.5135654298        5.0178540616
  H         3.6168940080        5.9460850352        5.7993301915
 Ne         3.5538786074        2.9269133890        5.9933624641
       4
 i =       13, E =       -52.1464910707
  O         3.8909067627        5.4638087274        5.0014571392
  H         4.8599698931        5.5145735732        5.0163668416
  H         3.6166582883        5.9471783601        5.7974228764
 Ne         3.5823845389        2.9180915164        5.9760350310
       4
 i =       14, E =       -52.1438274082
  O         3.8896264475        5.4614107895        5.0009440531
  H         4.8588242279        5.5161970676        5.0154603519
  H         3.6170003973        5.9490311370        5.7953090896
 Ne         3.5379118978        2.8927133436        5.9431370676
       4
 i =       15, E =       -52.1470165249
  O         3.8894090058        5.4726730038        4.9947283793
  H         4.8583212906        5.5159967444        5.0166387117
  H         3.6179334142        5.9479977901        5.7956868190
 Ne         3.5636961955        2.9181179639        5.9725853611
       4
 i =       16, E =       -52.1470119218
  O         3.8910739681        5.4620900059        5.0026656960
  H         4.8599666889        5.5161190253        5.0147262848
  H         3.6160431047        5.9493722364        5.7956707407
 Ne         3.5655528858        2.9212957976        5.9728974120
       4
 i =       17, E =       -52.1470414100
  O         3.8901432062        5.4687703644        4.9979056461
  H         4.8589753795        5.5167593883        5.0149769975
  H         3.6167827098        5.9496096844        5.7949594610
 Ne         3.5646659577        2.9193641615        5.9723418673
       4
 i =       18, E =       -52.1470470938
  O         3.8899034248        5.4681620109        4.9978661888
  H         4.8586941464        5.5175920089        5.0144217737
  H         3.6168290675        5.9505220261        5.7941303214
 Ne         3.5646225763        2.9204845304        5.9727443537
       4
 i =       19, E =       -52.1470488686
  O         3.8899768172        5.4673274244        4.9985616923
  H         4.8586991691        5.5185337841        5.0134978174
  H         3.6165188631        5.9518631273        5.7933627680
 Ne         3.5647544500        2.9203135648        5.9724428435
       4
 i =       20, E =       -52.1470511972
  O         3.8899862533        5.4669816088        4.9989316050
  H         4.8585666116        5.5206618362        5.0117100147
  H         3.6161363108        5.9546822932        5.7916216872
 Ne         3.5647882570        2.9201062099        5.9725210560
       4
 i =       21, E =       -52.1470651693
  O         3.8895996956        5.4651506646        5.0001380809
  H         4.8570785846        5.5388092287        4.9975421186
  H         3.6140056898        5.9779066398        5.7767054251
 Ne         3.5650182545        2.9198850395        5.9721269667
       4
 i =       22, E =       -52.1470877103
  O         3.8893162805        5.4637935555        5.0016242623
  H         4.8536706067        5.5848511715        4.9626975356
  H         3.6096278412        6.0356830363        5.7391803806
 Ne         3.5653288551        2.9198153444        5.9722575209
       4
 i =       23, E =       -52.1471188096
  O         3.8900149345        5.4666431642        5.0007709412
  H         4.8526258805        5.5920766811        4.9573682121
  H         3.6093010816        6.0432595628        5.7323046794
 Ne         3.5651448098        2.9198132108        5.9722948331
       4
 i =       24, E =       -52.1471151741
  O         3.8912055857        5.4712287575        4.9990308351
  H         4.8445461302        5.6558853805        4.9089320897
  H         3.6046441884        6.1165569305        5.6746430360
 Ne         3.5641394724        2.9204685059        5.9723690888
       4
 i =       25, E =       -52.1471482426
  O         3.8910354402        5.4714226190        4.9968244375
  H         4.8442342323        5.6294564687        4.9273204142
  H         3.6068993411        6.0806165837        5.6924907773
 Ne         3.5637042894        2.9215897072        5.9728094616
       4
 i =       26, E =       -52.1471753896
  O         3.8911342796        5.4708309797        4.9981405748
  H         4.8447238074        5.6351479896        4.9206720249
  H         3.6040019011        6.0906920843        5.6879632868
 Ne         3.5649129353        2.9208962062        5.9727295035
       4
 i =       27, E =       -52.1471858802
  O         3.8910589086        5.4705592435        4.9981846201
  H         4.8420640083        5.6485824047        4.9078490441
  H         3.6011634169        6.1066227450        5.6737882151
 Ne         3.5643078643        2.9205528803        5.9725339762
       4
 i =       28, E =       -52.1471984184
  O         3.8909403168        5.4705865738        4.9980566660
  H         4.8360475224        5.6723822864        4.8832536180
  H         3.5950367621        6.1342379228        5.6464996885
 Ne         3.5646560506        2.9206129975        5.9725207935
       4
 i =       29, E =       -52.1472255858
  O         3.8906610737        5.4695834884        4.9982068023
  H         4.8311633783        5.6809947945        4.8689569540
  H         3.5893438412        6.1442871892        5.6313196544
 Ne         3.5643943690        2.9206767279        5.9724034922
       4
 i =       30, E =       -52.1472769876
  O         3.8892082372        5.4673239801        4.9973988631
  H         4.8158642952        5.7045854882        4.8288645923
  H         3.5734688606        6.1712713631        5.5876563739
 Ne         3.5652195051        2.9204245428        5.9725767158
       4
 i =       31, E =       -52.1472951781
  O         3.8895032299        5.4669940155        4.9989655058
  H         4.8011352381        5.7336702965        4.7848734642
  H         3.5568217332        6.2054471050        5.5406632817
 Ne         3.5644091656        2.9206338245        5.9725427295
       4
 i =       32, E =       -52.1473489201
  O         3.8902965806        5.4667239207        5.0024115867
  H         4.7794728372        5.7505901889        4.7356221423
  H         3.5319092250        6.2255422564        5.4899250082
 Ne         3.5626624782        2.9209093593        5.9723282395
       4
 i =       33, E =       -52.1472233549
  O         3.8896395316        5.4673117339        4.9997223427
  H         4.7467570292        5.7933434966        4.6568691837
  H         3.5002835774        6.2728467283        5.4021623349
 Ne         3.5625044481        2.9205413667        5.9721653187
       4
 i =       34, E =       -52.1473703468
  O         3.8889226873        5.4684073741        4.9952633611
  H         4.7674476218        5.7629645700        4.7141448905
  H         3.5254456979        6.2363465080        5.4610429951
 Ne         3.5639371499        2.9200101008        5.9723543791
       4
 i =       35, E =       -52.1473879534
  O         3.8899135311        5.4686694617        4.9996340588
  H         4.7673236727        5.7645742595        4.7082592210
  H         3.5213708669        6.2391258111        5.4593117859
 Ne         3.5642976069        2.9210513744        5.9725511314
       4
 i =       36, E =       -52.1474045342
  O         3.8899520356        5.4686105752        4.9989353162
  H         4.7586097687        5.7720882576        4.6892988447
  H         3.5125803465        6.2481433878        5.4379843003
 Ne         3.5648069126        2.9209035175        5.9724812171
       4
 i =       37, E =       -52.1473246574
  O         3.8892852706        5.4681681241        4.9973627211
  H         4.7202698194        5.8028826056        4.6067565676
  H         3.4740171121        6.2817865118        5.3485755037
 Ne         3.5651669063        2.9202946080        5.9724008156
       4
 i =       38, E =       -52.1474192376
  O         3.8896034891        5.4683882449        4.9978525822
  H         4.7487009298        5.7777518699        4.6701528219
  H         3.5033538189        6.2540584757        5.4166484831
 Ne         3.5648926393        2.9205717726        5.9724220818
       4
 i =       39, E =       -52.1474272186
  O         3.8897322422        5.4682929139        4.9981748825
  H         4.7432900804        5.7808407401        4.6587899761
  H         3.4974748369        6.2576847891        5.4047412907
 Ne         3.5648473286        2.9207059636        5.9724298386
       4
 i =       40, E =       -52.1474008509
  O         3.8893337181        5.4679375575        4.9988249411
  H         4.7037548377        5.8031833802        4.5777331384
  H         3.4564577085        6.2815185825        5.3202391161
 Ne         3.5648804410        2.9210903410        5.9724245229
       4
 i =       41, E =       -52.1474407453
  O         3.8897241564        5.4681474595        4.9984730989
  H         4.7325893559        5.7853509659        4.6377356405
  H         3.4862303476        6.2626653714        5.3827741045
 Ne         3.5647922630        2.9208774990        5.9724433291
       4
 i =       42, E =       -52.1474493690
  O         3.8896627440        5.4680838569        4.9985017100
  H         4.7252275349        5.7884358397        4.6232308094
  H         3.4785348377        6.2661052413        5.3676425753
 Ne         3.5647821887        2.9208010153        5.9724526364
       4
 i =       43, E =       -52.1439765289
  O         3.8892802596        5.4674788931        4.9982036885
  H         4.6035757105        5.8381625880        4.3850570325
  H         3.3527313010        6.3221737370        5.1176425753
 Ne         3.5647793735        2.9208784551        5.9723616410
       4
 i =       44, E =       -52.1474519868
  O         3.8895223528        5.4680769785        4.9985512982
  H         4.7231330490        5.7887759445        4.6193450163
  H         3.4764620183        6.2662003475        5.3640685879
 Ne         3.5647648911        2.9207359430        5.9724510274
       4
 i =       45, E =       -52.1474541817
  O         3.8896406894        5.4680480837        4.9985368431
  H         4.7213603297        5.7889597921        4.6161594641
  H         3.4745443465        6.2667609161        5.3605089099
 Ne         3.5647305111        2.9207851973        5.9724521530
       4
 i =       46, E =       -52.1474871390
  O         3.8898542088        5.4679574859        4.9983900724
  H         4.6830489070        5.7964702132        4.5453891543
  H         3.4356513214        6.2767613078        5.2873476718
 Ne         3.5646026549        2.9212349598        5.9724244871
       4
 i =       47, E =       -52.1474889172
  O         3.8894114758        5.4680019633        4.9985644314
  H         4.6713231702        5.7982735862        4.5243274200
  H         3.4244315729        6.2784695854        5.2668376970
 Ne         3.5647699455        2.9211628995        5.9724595709
       4
 i =       48, E =       -52.1474942220
  O         3.8888441789        5.4680616303        4.9987134706
  H         4.6719667477        5.7969342434        4.5266598126
  H         3.4258665936        6.2761765326        5.2705024238
 Ne         3.5650003960        2.9207678344        5.9725019615
       4
 i =       49, E =       -52.1474987843
  O         3.8890495235        5.4679592770        4.9985166532
  H         4.6668062319        5.7959856244        4.5185590340
  H         3.4204522718        6.2761563178        5.2612560207
 Ne         3.5649145426        2.9203963677        5.9724724736
       4
 i =       50, E =       -52.1475045579
  O         3.8893705689        5.4678542922        4.9984208208
  H         4.6484289729        5.7943986846        4.4879292588
  H         3.4018189456        6.2758140921        5.2292062521
 Ne         3.5647383494        2.9199293151        5.9723824730
       4
 i =       51, E =       -52.1475108333
  O         3.8897961159        5.4678620543        4.9985136644
  H         4.6470894963        5.7926541077        4.4865418068
  H         3.4001006909        6.2742798930        5.2271827730
 Ne         3.5645801425        2.9203616741        5.9723367755
       4
 i =       52, E =       -52.1475160173
  O         3.8897879359        5.4678918874        4.9986649110
  H         4.6353519445        5.7901540047        4.4677882508
  H         3.3882721972        6.2720766694        5.2083204728
 Ne         3.5646594656        2.9207539796        5.9724246381
       4
 i =       53, E =       -52.1475190106
  O         3.8894373700        5.4678512157        4.9986623609
  H         4.6242075906        5.7867148754        4.4508202756
  H         3.3772362917        6.2688627928        5.1915529259
 Ne         3.5647728889        2.9210985193        5.9724552825
       4
 i =       54, E =       -52.1475206172
  O         3.8893649710        5.4677616513        4.9985021857
  H         4.6072694707        5.7816948051        4.4248810077
  H         3.3601121736        6.2647026672        5.1648114344
 Ne         3.5647615320        2.9212860929        5.9724533302
       4
 i =       55, E =       -52.1475236283
  O         3.8893008739        5.4677436554        4.9983359401
  H         4.6012280595        5.7780353610        4.4166965206
  H         3.3540616534        6.2613923051        5.1564457786
 Ne         3.5647741410        2.9212246533        5.9725017792
       4
 i =       56, E =       -52.1475234973
  O         3.8893087169        5.4677467360        4.9982749956
  H         4.5865404525        5.7719415850        4.3951641357
  H         3.3394920231        6.2560364083        5.1345190236
 Ne         3.5647495612        2.9211912084        5.9724576431
       4
 i =       57, E =       -52.1475246389
  O         3.8894278277        5.4678013142        4.9984444705
  H         4.5926347626        5.7737031879        4.4045556631
  H         3.3456951874        6.2575714644        5.1441500557
 Ne         3.5647253919        2.9210563683        5.9723973213
       4
 i =       58, E =       -52.1475247509
  O         3.8894321847        5.4677871768        4.9984517841
  H         4.5911307446        5.7731052036        4.4023627485
  H         3.3442202709        6.2571174545        5.1418767681
 Ne         3.5647443620        2.9210105602        5.9724523987
       4
 i =       59, E =       -52.1475247869
  O         3.8894167474        5.4677665088        4.9984676132
  H         4.5896422817        5.7724230757        4.4002239998
  H         3.3428429169        6.2565905997        5.1397598727
 Ne         3.5647444041        2.9209219226        5.9724457592
       4
 i =       60, E =       -52.1475247917
  O         3.8894196430        5.4677655588        4.9984641639
  H         4.5900398612        5.7725665515        4.4007961282
  H         3.3432577032        6.2567549498        5.1403549340
 Ne         3.5647449609        2.9209145740        5.9724464897
       4
 i =       61, E =       -52.1475247917
  O         3.8894196430        5.4677655588        4.9984641639
  H         4.5900398612        5.7725665515        4.4007961282
  H         3.3432577032        6.2567549498        5.1403549340
 Ne         3.5647449609        2.9209145740        5.9724464897
